OPT_V9/My_campus_w_initial_sub_3_active_25_03_11_44/powerflow_results_t10.txt
Pandapower Network Debug Info
==================================================

BUS:
       vm_pu  va_degree      p_mw    q_mvar
0   1.005135   0.173558 -0.003911  0.000872
1   1.009152   0.233029 -0.004258 -0.002887
2   1.009462   0.301537 -0.000869  0.000669
3   1.005807   0.203427 -0.001012  0.000000
4   1.005040   0.134774 -0.002504 -0.000705
5   1.005192   0.219866 -0.002925  0.000656
6   1.008950   0.318291 -0.003680 -0.000869
7   1.002154   0.071073 -0.002872 -0.000439
8   1.001344   0.048336 -0.004727 -0.000175
9   0.999974   0.000597  0.004762  0.002988
10  0.999969   0.000646  0.004410  0.003303
11  0.999966   0.000719  0.002883  0.004859
12  0.999986   0.001481  0.003935  0.000987
13  0.999978   0.001506  0.003028  0.004651
14  0.999973   0.001426  0.007740  0.003206
15  0.999990   0.000519  0.000000  0.000000
16  0.999990   0.000519  0.000000  0.000000
17  0.999988   0.001523  0.000000  0.000000
18  0.999988   0.001522  0.000000  0.000000
19  1.000000   0.000000 -0.002093 -0.014857
20  1.000000   0.000002  0.000000  0.000000
21  1.000000   0.000000  0.001917 -0.012367
22  1.000000   0.000001  0.000000  0.000000
--------------------------------------------------

LINE:
    p_from_mw   q_from_mvar   p_to_mw     q_to_mvar         pl_mw       ql_mvar  i_from_ka   i_to_ka      i_ka  vm_from_pu  va_from_degree  vm_to_pu  va_to_degree  loading_percent
0    0.002083  1.085662e-02 -0.002083 -1.085653e-02  1.195343e-07  9.320284e-08   0.000425  0.000425  0.000425    1.000000        0.000002  0.999990      0.000519         0.184998
1   -0.001927  8.366732e-03  0.001927 -8.366578e-03  1.982833e-07  1.546048e-07   0.000330  0.000330  0.000330    1.000000        0.000001  0.999988      0.001523         0.143681
2    0.012055  1.114974e-02 -0.012055 -1.114958e-02  2.085205e-07  1.625869e-07   0.000632  0.000632  0.000632    0.999990        0.000519  0.999974      0.000597         0.274806
3    0.003935  9.866574e-04 -0.003935 -9.866529e-04  5.690395e-09  4.436895e-09   0.000156  0.000156  0.000156    0.999988        0.001523  0.999986      0.001481         0.067884
4    0.010768  7.857736e-03 -0.010768 -7.857660e-03  9.716467e-08  7.576090e-08   0.000513  0.000513  0.000513    0.999988        0.001523  0.999978      0.001506         0.223081
5   -0.009982 -1.293147e-03  0.010030  1.330097e-03  4.738906e-05  3.695003e-05   0.014529  0.014529  0.014529    0.999990        0.000519  1.005135      0.173558         6.316803
6   -0.006560 -1.772708e-04  0.006593  2.033198e-04  3.340831e-05  2.604901e-05   0.009472  0.009472  0.009472    0.999988        0.001522  1.005192      0.219866         4.118120
7   -0.002867 -4.346411e-04  0.002872  4.390700e-04  5.680059e-06  4.428835e-06   0.004185  0.004185  0.004185    0.999988        0.001522  1.002154      0.071073         1.819621
8   -0.007213 -8.658291e-04  0.007222  8.729051e-04  9.075088e-06  7.075995e-06   0.010486  0.010486  0.010486    0.999988        0.001522  1.001344      0.048336         4.559232
9   -0.007293 -8.161718e-03  0.007293  8.161750e-03  4.143241e-08  3.230553e-08   0.000421  0.000421  0.000421    0.999969        0.000646  0.999974      0.000597         0.183174
10  -0.002883 -4.858989e-03  0.002883  4.859001e-03  1.561380e-08  1.217434e-08   0.000217  0.000217  0.000217    0.999966        0.000719  0.999969      0.000646         0.094556
11  -0.007740 -3.206482e-03  0.007740  3.206509e-03  3.432923e-08  2.676707e-08   0.000322  0.000322  0.000322    0.999973        0.001426  0.999978      0.001506         0.140207
12   0.005125  2.216610e-03 -0.005107 -2.202486e-03  1.811427e-05  1.412400e-05   0.007987  0.007987  0.007987    1.009152        0.233029  1.005135      0.173558         3.472472
13   0.001012  1.350674e-10 -0.001012  5.272540e-07  6.763857e-07  5.273890e-07   0.001453  0.001453  0.001453    1.005807        0.203427  1.005135      0.173558         0.631631
14   0.000869 -6.692994e-04 -0.000867  6.701316e-04  1.067328e-06  8.322130e-07   0.001568  0.001568  0.001568    1.009462        0.301537  1.009152      0.233029         0.681669
15  -0.002496 -6.981716e-04  0.002504  7.045262e-04  8.149965e-06  6.354662e-06   0.003736  0.003736  0.003736    1.001344        0.048336  1.005040      0.134774         1.624157
16   0.003680  8.685459e-04 -0.003668 -8.590102e-04  1.222973e-05  9.535721e-06   0.005410  0.005410  0.005410    1.008950        0.318291  1.005192      0.219866         2.352042
--------------------------------------------------

TRAFO:
    p_hv_mw  q_hv_mvar   p_lv_mw  q_lv_mvar    pl_mw  ql_mvar   i_hv_ka   i_lv_ka  vm_hv_pu  va_hv_degree  vm_lv_pu  va_lv_degree  loading_percent
0 -0.009972  -0.000293  0.009982   0.001293  0.00001    0.001  0.000384  0.014529  0.999990      0.000519  0.999990      0.000519         0.100657
1 -0.016630  -0.000478  0.016640   0.001478  0.00001    0.001  0.000640  0.024112  0.999988      0.001523  0.999988      0.001522         0.167053
2  0.002093   0.014857 -0.002083  -0.010857  0.00001    0.004  0.000124  0.000425  1.000000      0.000000  1.000000      0.000002         0.037508
3 -0.001917   0.012367  0.001927  -0.008367  0.00001    0.004  0.000103  0.000330  1.000000      0.000000  1.000000      0.000001         0.031286
--------------------------------------------------
